** -----------------------------------------------------
*Heading
*Node, nset=set-all
      1,           0.,           0.,  0.430000007
      2,  0.456999987,           0.,  0.430000007
      3,  0.456999987,           0.,  0.644999981
      4,           0.,           0.,  0.644999981
      5,           0., -0.456999987,  0.430000007
      6,           0., -0.456999987,  0.644999981
      7,           0.,  0.456999987,  0.430000007
      8,           0.,  0.456999987,  0.215000004
      9,           0.,           0.,  0.215000004
     10, -0.456999987,           0.,  0.430000007
     11, -0.456999987,           0.,  0.215000004
     12,  0.456999987,           0.,  0.215000004
     13,           0., -0.456999987,  0.215000004
     14, -0.456999987,           0.,  0.644999981
     15,           0.,  0.456999987,  0.644999981
     16,           0., -0.456999987,           0.
     17,           0.,           0.,           0.
     18,  0.456999987,           0.,           0.
     19,           0.,  0.456999987,           0.
     20, -0.456999987,           0.,           0.
** ... 6154 like lines cut
   **
   **  node for rebar_real
	10009	,	0	,	0	,	0.215000004
	10095	,	0	,	0	,	0.236499995
	10096	,	0	,	0	,	0.257999986
	10097	,	0	,	0	,	0.279500008
	10098	,	0	,	0	,	0.300999999
	10099	,	0	,	0	,	0.32249999
	10100	,	0	,	0	,	0.344000012
	10101	,	0	,	0	,	0.365500003
	10102	,	0	,	0	,	0.386999995
	10103	,	0	,	0	,	0.408499986
	10001	,	0	,	0	,	0.430000007
	10004	,	0	,	0	,	0.645
   **
   **  node for bond element for rebar
	20009	,	0	,	0	,	0.215000004
	20095	,	0	,	0	,	0.236499995
	20096	,	0	,	0	,	0.257999986
	20097	,	0	,	0	,	0.279500008
	20098	,	0	,	0	,	0.300999999
	20099	,	0	,	0	,	0.32249999
	20100	,	0	,	0	,	0.344000012
	20101	,	0	,	0	,	0.365500003
	20102	,	0	,	0	,	0.386999995
	20103	,	0	,	0	,	0.408499986
	20001	,	0	,	0	,	0.430000007
** -----------------------------------------------------
*Element, type=C3D8, elset= ALL
	  1,  486,  487, 2727, 2667,   27,   26,  431,  430
	  2,  487,  488, 2728, 2727,   26,   25,  432,  431
	  3,  488,  489, 2729, 2728,   25,   24,  433,  432
	  4,  489,  490, 2730, 2729,   24,   23,  434,  433
	  5,  490,  491, 2731, 2730,   23,   22,  435,  434
	  6,  491,  492, 2732, 2731,   22,   21,  436,  435
	  7,  492,   32,  458, 2732,   21,    1,   31,  436
	  8, 2667, 2727, 2733, 2668,  430,  431,  438,  437
	  9, 2727, 2728, 2734, 2733,  431,  432,  439,  438
	 10, 2728, 2729, 2735, 2734,  432,  433,  440,  439
	 11, 2729, 2730, 2736, 2735,  433,  434,  441,  440
	 12, 2730, 2731, 2737, 2736,  434,  435,  442,  441
	 13, 2731, 2732, 2738, 2737,  435,  436,  443,  442
	 14, 2732,  458,  459, 2738,  436,   31,   30,  443
	 15, 2668, 2733, 2679, 2653,  437,  438,  445,  444
	 16, 2733, 2734, 2680, 2679,  438,  439,  446,  445
	 17, 2734, 2735, 2681, 2680,  439,  440,  447,  446
	 18, 2735, 2736, 2682, 2681,  440,  441,  448,  447
	 19, 2736, 2737, 2683, 2682,  441,  442,  449,  448
	 20, 2737, 2738, 2684, 2683,  442,  443,  450,  449
** ... 5280 like lines cut
*Element, type=t3d2, elset=Rebar_real
	10001	,	10009	,	10095
	10002	,	10095	,	10096
	10003	,	10096	,	10097
	10004	,	10097	,	10098
	10005	,	10098	,	10099
	10006	,	10099	,	10100
	10007	,	10100	,	10101
	10008	,	10101	,	10102
	10009	,	10102	,	10103
	10010	,	10103	,	10001
	10011	,	10001	,	10004
*Element, type=t3d2, elset=Rebar
	20001	,	20009	,	20095
	20002	,	20095	,	20096
	20003	,	20096	,	20097
	20004	,	20097	,	20098
	20005	,	20098	,	20099
	20006	,	20099	,	20100
	20007	,	20100	,	20101
	20008	,	20101	,	20102
	20009	,	20102	,	20103
	20010	,	20103	,	20001
** --------------------------------------------- **
*USER ELEMENT, TYPE=U6, NODE=4, COORDINATES=3, PROPERTIES=9, VARIABLES=4000
	1, 2, 3
*Element,  TYPE=U6, ELSET=REBAR_C
	30001	,	10009	,	10095	,	20095	,	20009
	30002	,	10095	,	10096	,	20096	,	20095
	30003	,	10096	,	10097	,	20097	,	20096
	30004	,	10097	,	10098	,	20098	,	20097
	30005	,	10098	,	10099	,	20099	,	20098
	30006	,	10099	,	10100	,	20100	,	20099
	30007	,	10100	,	10101	,	20101	,	20100
	30008	,	10101	,	10102	,	20102	,	20101
	30009	,	10102	,	10103	,	20103	,	20102
	30010	,	10103	,	10001	,	20001	,	20103
*UEL PROPERTY, ELSET = REBAR_C
	5, 0.15, 100, 2, 3, 3, 0.02, 0.02, 
	10
** -----------------------------------------------------
*Solid Section, elset=ALL, material=C30
	,
*Solid Section, elset=Rebar, material=STEEL02
	0.1,
*Solid Section, elset=Rebar_real, material=STEEL02_REAL
	0.001452 
** 
*Nset, nset=BC1
	3,    4,    6,   14,   15,   56,   57,   58,   59,   60,   61,   62,   63,   64,   65,   66
   67,   68,   69,   70,   71,   72,   73,   74,   75,   76,   77,   78,   79,   80,   81,   82
  258,  259,  260,  261,  262,  263,  264,  265,  266,  267,  268,  269,  270,  271,  272,  273
  274,  275,  276,  277,  278,  279,  280,  281,  282,  283,  284,  285,  286,  287,  288,  289
  290,  291,  292,  293,  294,  295,  296,  297,  298,  299,  304,  305,  306,  307,  308,  309
  310,  311,  312,  313,  314,  315,  587,  588,  589,  590,  591,  592,  593,  594,  595,  596
  597,  598,  599,  600,  601,  602,  603,  604,  605,  606,  607,  608,  609,  610,  611,  612
  613,  614,  615,  616,  617,  618,  619,  620,  621,  622,  623,  624,  625,  626,  627,  628
  629,  630,  631,  632,  633,  634,  635, 1646, 1647, 1648, 1649, 1650, 1651, 1652, 1653, 1654
 1655, 1656, 1657, 1658, 1659, 1660, 1661, 1662, 1663, 1664, 1665, 1666, 1667, 1668, 1669, 1670
 1671, 1672, 1673, 1674, 1675, 1676, 1677, 1678, 1679, 1680, 1681, 1682, 1683, 1684, 1685, 1686
 1687, 1688, 1689, 1690, 1691, 1692, 1693, 1694, 1783, 1784, 1785, 1786, 1787, 1788, 1789, 1790
 1791, 1792, 1793, 1794, 1795, 1796, 1797, 1798, 1799, 1800, 1801, 1802, 1803, 1804, 1805, 1806
 1807, 1808, 1809, 1810, 1811, 1812, 1813, 1814, 1815, 1816, 1817, 1818, 1819, 1820, 1821, 1822
 1823, 1824, 1825, 1826, 1827, 1828, 1829, 1830, 1831, 1832, 1833, 1834, 1835, 1836, 1837, 1838
 1887, 1888, 1889, 1890, 1891, 1892, 1893, 1894, 1895, 1896, 1897, 1898, 1899, 1900, 1901, 1902
 1903, 1904, 1905, 1906, 1907, 1908, 1909, 1910, 1911, 1912, 1913, 1914, 1915, 1916, 1917, 1918
 1919, 1920, 1921, 1922, 1923, 1924, 1925, 1926, 1927, 1928, 1929, 1930, 1931, 1932, 1933, 1934
 1935, 1936, 1937, 1938, 1939, 1940
*Nset, nset=LOADX
	10004		
** -----------------------------------------------------
** Constraint: Embed-1
*Embedded Element, host elset=ALL
	Rebar
** -----------------------------------------------------	
*Amplitude, name=AMP-TEST1
	  0.,              0.00,
	  2.,              0.002,
	  4.,              0.000,
	  6.,             -0.002,
	  8.,              0.000,
	  **
	  12.,              0.004,
	  16.,              0.000,
	  20.,             -0.004,
	  24.,              0.000,
	  **
	  30.,              0.01,
	  36.,              0.000,
	  42.,             -0.01,
	  48.,              0.000,	 
      **
	  54.,              0.025,
	  60.,              0.000,
	  66.,             -0.025,
	  72.,              0.000,	 
      **
	  82.,              0.04,
	  92.,              0.000,
	  102.,             -0.04,
	  112.,              0.000,		  
** -----------------------------------------------------
** MATERIALS
** 
*Material, name=C30
*Elastic
	3e+10., 0.2
** 
** MATERIAL FOR REBAR
** 
*Material, name=STEEL02
*Elastic
	200000, 0.3
*Material, name=STEEL02_REAL
*Elastic
   1.9e+11,0.
*Plastic
   4.80e+08,   0.
   6.55e+08,     0.19
** -----------------------------------------------------
*Material, name=umatelemX
*Depvar
	120,
*User Material, constants=2
	1.0e-11, 0.2 
**
** ----------------------------------------------------------------
** 
** STEP: Step-1
** 
*Step, name=Step-1, nlgeom=NO, inc=100000
*Static
	0.02, 112., 1e-05, 0.02
** 
** BOUNDARY CONDITIONS
** 
** Name: BC-1 Type: Displacement/Rotation
*Boundary
	BC1, 1, 1
	BC1, 2, 2
	BC1, 3, 3
** Name: BC-2 Type: Displacement/Rotation
*Boundary
	LOADX, 1, 1
	LOADX, 2, 2
** Name: BC-3 Type: Displacement/Rotation
*Boundary, amplitude=AMP-TEST1
	LOADX, 3, 3, 1
** 
** CONTROLS
** 
**  ------------------------------------------------------------------- **
** 
** OUTPUT REQUESTS
** 
*Restart, write, frequency=0
** 
** FIELD OUTPUT: F-Output-1
** 
** 
*Output, field, time interval=0.2
*Node Output
 U, RF
*Element Output, directions=YES
 E, LE, S, SDV, STATUS, SDV
** 
** HISTORY OUTPUT: H-Output-1
** 
*Output, history, variable=PRESELECT
**
*END STEP
